Version 4
SHEET 1 3896 1188
WIRE 192 -96 -288 -96
WIRE 384 -32 288 -32
WIRE 480 -16 448 -16
WIRE 496 -16 480 -16
WIRE -256 0 -352 0
WIRE 384 0 352 0
WIRE 896 0 816 0
WIRE -160 16 -192 16
WIRE -144 16 -160 16
WIRE 1040 16 960 16
WIRE 1056 16 1040 16
WIRE -288 32 -288 -96
WIRE -288 32 -352 32
WIRE -256 32 -288 32
WIRE 896 32 880 32
WIRE 352 48 352 0
WIRE 768 48 352 48
WIRE 0 96 -32 96
WIRE 592 96 528 96
WIRE -144 144 -144 16
WIRE -32 144 -32 96
WIRE -32 144 -144 144
WIRE 496 144 496 -16
WIRE 528 144 528 96
WIRE 528 144 496 144
WIRE -144 208 -144 144
WIRE -144 208 -512 208
WIRE 80 224 80 144
WIRE 128 224 80 224
WIRE 496 224 496 144
WIRE 496 224 400 224
WIRE 672 224 672 144
WIRE 720 224 672 224
WIRE -16 240 -16 144
WIRE -16 240 -224 240
WIRE 576 240 576 144
WIRE 576 240 368 240
WIRE 192 304 192 -96
WIRE 256 304 192 304
WIRE 352 304 352 48
WIRE 352 304 288 304
WIRE -16 320 -16 240
WIRE 80 320 80 224
WIRE 576 320 576 240
WIRE 672 320 672 224
WIRE 768 320 768 48
WIRE 816 320 768 320
WIRE 880 320 880 32
WIRE 880 320 848 320
WIRE 368 368 368 240
WIRE 368 368 320 368
WIRE -464 384 -496 384
WIRE 64 400 64 368
WIRE 64 400 -64 400
WIRE 656 400 656 368
WIRE 656 400 512 400
WIRE -416 416 -416 400
WIRE -256 416 -416 416
WIRE 64 416 64 400
WIRE 64 416 0 416
WIRE 128 416 128 224
WIRE 272 416 272 320
WIRE 272 416 128 416
WIRE 720 416 720 224
WIRE 832 416 832 336
WIRE 832 416 720 416
WIRE -512 448 -512 208
WIRE -496 448 -496 384
WIRE -496 448 -512 448
WIRE -416 448 -416 416
WIRE 0 448 0 416
WIRE 656 448 656 400
WIRE 656 448 608 448
WIRE 512 464 512 400
WIRE 512 464 464 464
WIRE 400 480 400 224
WIRE 400 480 208 480
WIRE -256 512 -256 416
WIRE -64 512 -64 400
WIRE -64 512 -256 512
WIRE -496 528 -496 448
WIRE -464 528 -496 528
WIRE 688 576 688 496
WIRE 720 576 720 416
WIRE 720 576 688 576
WIRE -16 592 -16 496
WIRE -16 592 -224 592
WIRE 80 592 80 496
WIRE 128 592 128 416
WIRE 128 592 80 592
WIRE 592 592 592 496
WIRE 592 592 320 592
WIRE -16 672 -16 592
WIRE 80 672 80 592
WIRE 592 672 592 592
WIRE 688 672 688 576
WIRE -32 720 -32 144
WIRE 64 720 -32 720
WIRE 528 720 528 144
WIRE 672 720 528 720
WIRE 464 736 464 464
WIRE 592 736 464 736
WIRE 320 784 288 784
WIRE 368 832 368 800
WIRE 592 832 592 736
WIRE 592 832 368 832
WIRE 368 848 368 832
WIRE 208 864 208 480
WIRE 288 864 288 784
WIRE 288 864 208 864
WIRE 288 928 288 864
WIRE 320 928 288 928
FLAG 960 144 vdd
FLAG 624 144 vdd
FLAG 640 496 vdd
FLAG 32 144 vdd
FLAG 32 496 vdd
FLAG 1104 144 vee
FLAG 624 320 vee
FLAG 640 672 vee
FLAG 32 672 vee
FLAG 32 320 vee
FLAG 960 224 0
FLAG 1104 224 0
FLAG 960 400 vrby2
FLAG -352 0 vrby2
FLAG -224 592 vrby2
FLAG 1136 400 vrby4
FLAG 288 -32 vrby4
FLAG 320 592 vrby4
FLAG 1296 400 vrby8
FLAG 816 0 vrby8
FLAG 832 624 0V
FLAG -224 240 0V
FLAG 320 368 0V
FLAG 960 480 0
FLAG 1136 480 0
FLAG 1296 480 0
FLAG 832 704 0
FLAG 1008 704 0
FLAG -352 32 Vi
FLAG 1008 624 Vi
FLAG 1184 688 0
FLAG -224 -16 vcc
FLAG 416 -48 vcc
FLAG 928 -16 vcc
FLAG 1184 608 vcc-
FLAG -224 48 vcc-
FLAG 416 16 vcc-
FLAG 928 48 vcc-
FLAG 896 928 0
FLAG 1072 928 0
FLAG 896 848 vcc
FLAG 368 704 vcc
FLAG 1072 848 vss
FLAG 368 944 vss
FLAG 368 752 vdd
FLAG 368 896 vee
FLAG -416 304 vcc
FLAG -416 544 vss
FLAG -416 352 vdd
FLAG -416 496 vee
FLAG -160 16 A2
FLAG 480 -16 A1
FLAG 1040 16 A0
SYMBOL nmos4 -16 368 R270
WINDOW 3 -39 112 Left 2
SYMATTR Value TSMC180nmN
SYMATTR InstName M1
SYMATTR Value2 l=0.18u w=0.36u
SYMBOL nmos4 576 368 R270
WINDOW 3 -37 123 Left 2
SYMATTR Value TSMC180nmN
SYMATTR InstName M2
SYMATTR Value2 l=0.18u w=0.36u
SYMBOL pmos4 80 96 R90
WINDOW 3 -44 134 Left 2
SYMATTR Value TSMC180nmP
SYMATTR InstName M3
SYMATTR Value2 l=0.18u w=0.9u
SYMBOL pmos4 672 96 R90
WINDOW 3 -25 117 Left 2
SYMATTR Value TSMC180nmP
SYMATTR InstName M4
SYMATTR Value2 l=0.18u w=0.9u
SYMBOL nmos4 -16 720 R270
WINDOW 3 -60 119 Left 2
SYMATTR Value TSMC180nmN
SYMATTR InstName M5
SYMATTR Value2 l=0.18u w=0.36u
SYMBOL pmos4 80 448 R90
WINDOW 3 -32 122 Left 2
SYMATTR Value TSMC180nmP
SYMATTR InstName M6
SYMATTR Value2 l=0.18u w=0.9u
SYMBOL nmos4 592 720 R270
WINDOW 3 -49 114 Left 2
SYMATTR Value TSMC180nmN
SYMATTR InstName M7
SYMATTR Value2 l=0.18u w=0.36u
SYMBOL pmos4 688 448 R90
WINDOW 3 -23 112 Left 2
SYMATTR Value TSMC180nmP
SYMATTR InstName M8
SYMATTR Value2 l=0.18u w=0.9u
SYMBOL voltage 960 128 R0
WINDOW 123 0 0 Left 0
WINDOW 39 0 0 Left 0
SYMATTR InstName V1
SYMATTR Value 1.6
SYMBOL voltage 1104 128 R0
WINDOW 123 0 0 Left 0
WINDOW 39 0 0 Left 0
SYMATTR InstName V2
SYMATTR Value -1.6
SYMBOL ZZZ\\Comparator\\lmv7271 -224 16 R0
SYMATTR InstName U3
SYMBOL ZZZ\\Comparator\\lmv7271 416 -16 R0
SYMATTR InstName U4
SYMBOL ZZZ\\Comparator\\lmv7271 928 16 R0
SYMATTR InstName U5
SYMBOL ZZZ\\Sig&SysProc\\subtr 304 304 R0
SYMATTR InstName U6
SYMBOL ZZZ\\Sig&SysProc\\subtr 864 320 R0
SYMATTR InstName U7
SYMBOL voltage 960 384 R0
WINDOW 123 0 0 Left 0
WINDOW 39 0 0 Left 0
SYMATTR InstName V4
SYMATTR Value .5
SYMBOL voltage 1136 384 R0
WINDOW 123 0 0 Left 0
WINDOW 39 0 0 Left 0
SYMATTR InstName V5
SYMATTR Value .25
SYMBOL voltage 1296 384 R0
WINDOW 3 24 44 Left 2
WINDOW 123 0 0 Left 0
WINDOW 39 0 0 Left 0
SYMATTR Value .125
SYMATTR InstName V6
SYMBOL voltage 832 608 R0
WINDOW 123 0 0 Left 0
WINDOW 39 0 0 Left 0
SYMATTR InstName V7
SYMATTR Value 0
SYMBOL voltage 1008 608 R0
WINDOW 3 -46 140 Left 2
WINDOW 123 0 0 Left 0
WINDOW 39 0 0 Left 0
SYMATTR Value SINE(0 1 10000 10u 0 90)
SYMATTR InstName V8
SYMBOL voltage 1184 592 R0
WINDOW 123 0 0 Left 0
WINDOW 39 0 0 Left 0
SYMATTR InstName V9
SYMATTR Value -.5
SYMBOL nmos4 320 848 R0
SYMATTR InstName M9
SYMATTR Value TSMC180nmN
SYMATTR Value2 l=0.18u w=0.36u
SYMBOL pmos4 320 704 R0
SYMATTR InstName M10
SYMATTR Value TSMC180nmP
SYMATTR Value2 l=0.18u w=0.9u
SYMBOL voltage 896 832 R0
WINDOW 123 0 0 Left 0
WINDOW 39 0 0 Left 0
SYMATTR InstName V10
SYMATTR Value .5
SYMBOL voltage 1072 832 R0
WINDOW 123 0 0 Left 0
WINDOW 39 0 0 Left 0
SYMATTR InstName V11
SYMATTR Value -.5
SYMBOL nmos4 -464 448 R0
SYMATTR InstName M11
SYMATTR Value TSMC180nmN
SYMATTR Value2 l=0.18u w=0.36u
SYMBOL pmos4 -464 304 R0
SYMATTR InstName M12
SYMATTR Value TSMC180nmP
SYMATTR Value2 l=0.18u w=0.9u
TEXT -432 728 Left 2 !.tran 100u
TEXT 2000 -448 Left 2 !.MODEL TSMC180nmN NMOS (                                LEVEL   = 7\n+VERSION = 3.1            TNOM    = 27             TOX     = 4.1E-9\n+XJ      = 1E-7           NCH     = 2.3549E17      VTH0    = 0.354505\n+K1      = 0.5733393      K2      = 3.177172E-3    K3      = 27.3563303\n+K3B     = -10            W0      = 2.341477E-5    NLX     = 1.906617E-7\n+DVT0W   = 0              DVT1W   = 0              DVT2W   = 0\n+DVT0    = 1.6751718      DVT1    = 0.4282625      DVT2    = 0.036004\n+U0      = 327.3736992    UA      = -4.52726E-11   UB      = 4.46532E-19\n+UC      = -4.74051E-11   VSAT    = 8.785346E4     A0      = 1.6897405\n+AGS     = 0.2908676      B0      = -8.224961E-9   B1      = -1E-7\n+KETA    = 0.021238       A1      = 8.00349E-4     A2      = 1\n+RDSW    = 105            PRWG    = 0.5            PRWB    = -0.2\n+WR      = 1              WINT    = 0              LINT    = 1.351737E-8\n*+XL      = -2E-8          XW      = -1E-8         \n+ DWG     = 1.610448E-9\n+DWB     = -5.108595E-9   VOFF    = -0.0652968     NFACTOR = 2.4901845\n+CIT     = 0              CDSC    = 2.4E-4         CDSCD   = 0\n+CDSCB   = 0              ETA0    = 0.0231564      ETAB    = -0.058499\n+DSUB    = 0.9467118      PCLM    = 0.8512348      PDIBLC1 = 0.0929526\n+PDIBLC2 = 0.01           PDIBLCB = -0.1           DROUT   = 0.5224026\n+PSCBE1  = 7.979323E10    PSCBE2  = 1.522921E-9    PVAG    = 0.01\n+DELTA   = 0.01           RSH     = 6.8            MOBMOD  = 1\n+PRT     = 0              UTE     = -1.5           KT1     = -0.11\n+KT1L    = 0              KT2     = 0.022          UA1     = 4.31E-9\n+UB1     = -7.61E-18      UC1     = -5.6E-11       AT      = 3.3E4\n+WL      = 0              WLN     = 1              WW      = 0\n+WWN     = 1              WWL     = 0              LL      = 0\n+LLN     = 1              LW      = 0              LWN     = 1\n+LWL     = 0              CAPMOD  = 2              XPART   = 0.5\n+CGDO    = 7.7E-10        CGSO    = 7.7E-10        CGBO    = 1E-12\n+CJ      = 1.010083E-3    PB      = 0.7344298      MJ      = 0.3565066\n+CJSW    = 2.441707E-10   PBSW    = 0.8005503      MJSW    = 0.1327842\n+CJSWG   = 3.3E-10        PBSWG   = 0.8005503      MJSWG   = 0.1327842\n+CF      = 0              PVTH0   = 1.307195E-3    PRDSW   = -5\n+PK2     = -1.022757E-3   WKETA   = -4.466285E-4   LKETA   = -9.715157E-3\n+PU0     = 12.2704847     PUA     = 4.421816E-11   PUB     = 0\n+PVSAT   = 1.707461E3     PETA0   = 1E-4           PKETA   = 2.348777E-3     )
TEXT 3032 -392 Left 2 !.MODEL TSMC180nmP PMOS (                                LEVEL   = 7\n+VERSION = 3.1            TNOM    = 27             TOX     = 4.1E-9\n+XJ      = 1E-7           NCH     = 4.1589E17      VTH0    = -0.4120614\n+K1      = 0.5590154      K2      = 0.0353896      K3      = 0\n+K3B     = 7.3774572      W0      = 1E-6           NLX     = 1.103367E-7\n+DVT0W   = 0              DVT1W   = 0              DVT2W   = 0\n+DVT0    = 0.4301522      DVT1    = 0.2156888      DVT2    = 0.1\n+U0      = 128.7704538    UA      = 1.908676E-9    UB      = 1.686179E-21\n+UC      = -9.31329E-11   VSAT    = 1.658944E5     A0      = 1.6076505\n+AGS     = 0.3740519      B0      = 1.711294E-6    B1      = 4.946873E-6\n+KETA    = 0.0210951      A1      = 0.0244939      A2      = 1\n+RDSW    = 127.0442882    PRWG    = 0.5            PRWB    = -0.5\n+WR      = 1              WINT    = 5.428484E-10   LINT    = 2.468805E-8\n*+XL      = -2E-8          XW      = -1E-8          \n+DWG     = -2.453074E-8\n+DWB     = 6.408778E-9    VOFF    = -0.0974174     NFACTOR = 1.9740447\n+CIT     = 0              CDSC    = 2.4E-4         CDSCD   = 0\n+CDSCB   = 0              ETA0    = 0.1847491      ETAB    = -0.2531172\n+DSUB    = 1.5            PCLM    = 4.8842961      PDIBLC1 = 0.0156227\n+PDIBLC2 = 0.1            PDIBLCB = -1E-3          DROUT   = 0\n+PSCBE1  = 1.733878E9     PSCBE2  = 5.002842E-10   PVAG    = 15\n+DELTA   = 0.01           RSH     = 7.7            MOBMOD  = 1\n+PRT     = 0              UTE     = -1.5           KT1     = -0.11\n+KT1L    = 0              KT2     = 0.022          UA1     = 4.31E-9\n+UB1     = -7.61E-18      UC1     = -5.6E-11       AT      = 3.3E4\n+WL      = 0              WLN     = 1              WW      = 0\n+WWN     = 1              WWL     = 0              LL      = 0\n+LLN     = 1              LW      = 0              LWN     = 1\n+LWL     = 0              CAPMOD  = 2              XPART   = 0.5\n+CGDO    = 7.11E-10       CGSO    = 7.11E-10       CGBO    = 1E-12\n+CJ      = 1.179334E-3    PB      = 0.8545261      MJ      = 0.4117753\n+CJSW    = 2.215877E-10   PBSW    = 0.6162997      MJSW    = 0.2678074\n+CJSWG   = 4.22E-10       PBSWG   = 0.6162997      MJSWG   = 0.2678074\n+CF      = 0              PVTH0   = 2.283319E-3    PRDSW   = 5.6431992\n+PK2     = 2.813503E-3    WKETA   = 2.438158E-3    LKETA   = -0.0116078\n+PU0     = -2.2514581     PUA     = -7.62392E-11   PUB     = 4.502298E-24\n+PVSAT   = -50            PETA0   = 1E-4           PKETA   = -1.047892E-4    )
