Version 4
SHEET 1 8020 4004
WIRE 16 -96 -128 -96
WIRE 0 16 0 -48
WIRE 0 16 -176 16
WIRE 96 16 96 -48
WIRE 176 16 96 16
WIRE 0 64 0 16
WIRE 96 64 96 16
WIRE 80 128 80 112
WIRE 80 128 -704 128
WIRE 80 144 80 128
WIRE 80 144 16 144
WIRE 176 144 176 16
WIRE 336 144 176 144
WIRE 528 160 448 160
WIRE 16 176 16 144
WIRE 336 272 336 144
WIRE 512 272 512 208
WIRE 512 272 336 272
WIRE 608 272 608 208
WIRE 688 272 608 272
WIRE 0 288 0 224
WIRE 0 288 -176 288
WIRE 96 288 96 224
WIRE 176 288 176 144
WIRE 176 288 96 288
WIRE 512 320 512 272
WIRE 608 320 608 272
WIRE 0 336 0 288
WIRE 96 336 96 288
WIRE 5280 336 5136 336
WIRE -128 384 -128 -96
WIRE -128 384 -240 384
WIRE 80 384 -128 384
WIRE 592 400 592 368
WIRE 592 400 528 400
WIRE 688 400 688 272
WIRE 720 400 688 400
WIRE 400 416 352 416
WIRE 448 416 448 160
WIRE 448 416 400 416
WIRE 528 416 528 400
WIRE 528 416 464 416
WIRE 528 432 528 416
WIRE -368 448 -368 432
WIRE -240 448 -240 384
WIRE -240 448 -368 448
WIRE -176 448 -240 448
WIRE 5264 448 5264 384
WIRE 5264 448 5088 448
WIRE 5360 448 5360 384
WIRE 5440 448 5360 448
WIRE -704 464 -704 128
WIRE -416 464 -416 448
WIRE -416 464 -704 464
WIRE -416 480 -416 464
WIRE -240 496 -240 448
WIRE -128 496 -240 496
WIRE 16 496 -128 496
WIRE 5264 496 5264 448
WIRE 5360 496 5360 448
WIRE 512 544 512 480
WIRE 512 544 336 544
WIRE 608 544 608 480
WIRE 688 544 688 400
WIRE 688 544 608 544
WIRE -368 560 -368 448
WIRE 5344 560 5344 544
WIRE 5344 560 4560 560
WIRE 5344 576 5344 560
WIRE 5344 576 5280 576
WIRE 5440 576 5440 448
WIRE 5600 576 5440 576
WIRE 512 592 512 544
WIRE 608 592 608 544
WIRE 5792 592 5712 592
WIRE 0 608 0 544
WIRE 0 608 -176 608
WIRE 96 608 96 544
WIRE 176 608 96 608
WIRE 5280 608 5280 576
WIRE 448 640 448 416
WIRE 592 640 448 640
WIRE 0 656 0 608
WIRE 96 656 96 608
WIRE 5600 704 5600 576
WIRE 5776 704 5776 640
WIRE 5776 704 5600 704
WIRE 5872 704 5872 640
WIRE 5952 704 5872 704
WIRE 5264 720 5264 656
WIRE 5264 720 5088 720
WIRE 5360 720 5360 656
WIRE 5440 720 5440 576
WIRE 5440 720 5360 720
WIRE -704 736 -704 464
WIRE 16 736 -704 736
WIRE 80 736 80 704
WIRE 80 736 16 736
WIRE 176 752 176 608
WIRE 336 752 336 544
WIRE 336 752 176 752
WIRE 5776 752 5776 704
WIRE 5872 752 5872 704
WIRE 16 768 16 736
WIRE 5264 768 5264 720
WIRE 5360 768 5360 720
WIRE 400 784 400 416
WIRE 400 784 272 784
WIRE 464 800 464 416
WIRE 560 800 464 800
WIRE 5136 816 5136 336
WIRE 5136 816 5024 816
WIRE 5344 816 5136 816
WIRE 5856 832 5856 800
WIRE 5856 832 5792 832
WIRE 5952 832 5952 704
WIRE 5984 832 5952 832
WIRE 5664 848 5616 848
WIRE 5712 848 5712 592
WIRE 5712 848 5664 848
WIRE 5792 848 5792 832
WIRE 5792 848 5728 848
WIRE 5792 864 5792 848
WIRE 0 880 0 816
WIRE 0 880 -176 880
WIRE 96 880 96 816
WIRE 176 880 176 752
WIRE 176 880 96 880
WIRE 4896 880 4896 864
WIRE 5024 880 5024 816
WIRE 5024 880 4896 880
WIRE 5088 880 5024 880
WIRE 4560 896 4560 560
WIRE 4848 896 4848 880
WIRE 4848 896 4560 896
WIRE 4848 912 4848 896
WIRE 0 928 0 880
WIRE 96 928 96 880
WIRE 5024 928 5024 880
WIRE 5136 928 5024 928
WIRE 5280 928 5136 928
WIRE 368 960 368 944
WIRE 560 960 560 800
WIRE 560 960 368 960
WIRE -128 976 -128 496
WIRE 80 976 -128 976
WIRE 272 976 272 784
WIRE 320 976 320 928
WIRE 320 976 272 976
WIRE 368 976 368 960
WIRE 5776 976 5776 912
WIRE 5776 976 5600 976
WIRE 5872 976 5872 912
WIRE 5952 976 5952 832
WIRE 5952 976 5872 976
WIRE 4896 992 4896 880
WIRE 5776 1024 5776 976
WIRE 5872 1024 5872 976
WIRE 5264 1040 5264 976
WIRE 5264 1040 5088 1040
WIRE 5360 1040 5360 976
WIRE 5440 1040 5360 1040
WIRE 320 1056 320 976
WIRE 5712 1072 5712 848
WIRE 5856 1072 5712 1072
WIRE 5264 1088 5264 1040
WIRE 5360 1088 5360 1040
WIRE 80 1152 -64 1152
WIRE 4560 1168 4560 896
WIRE 5280 1168 4560 1168
WIRE 5344 1168 5344 1136
WIRE 5344 1168 5280 1168
WIRE 5440 1184 5440 1040
WIRE 5600 1184 5600 976
WIRE 5600 1184 5440 1184
WIRE 5280 1200 5280 1168
WIRE 5664 1216 5664 848
WIRE 5664 1216 5536 1216
WIRE 5728 1232 5728 848
WIRE 5824 1232 5728 1232
WIRE 64 1264 64 1200
WIRE 64 1264 -112 1264
WIRE 160 1264 160 1200
WIRE 240 1264 160 1264
WIRE 64 1312 64 1264
WIRE 160 1312 160 1264
WIRE 5264 1312 5264 1248
WIRE 5264 1312 5088 1312
WIRE 5360 1312 5360 1248
WIRE 5440 1312 5440 1184
WIRE 5440 1312 5360 1312
WIRE 5264 1360 5264 1312
WIRE 5360 1360 5360 1312
WIRE 144 1376 144 1360
WIRE 144 1376 -640 1376
WIRE 144 1392 144 1376
WIRE 144 1392 80 1392
WIRE 240 1392 240 1264
WIRE 400 1392 240 1392
WIRE 5632 1392 5632 1376
WIRE 5824 1392 5824 1232
WIRE 5824 1392 5632 1392
WIRE 592 1408 512 1408
WIRE 5136 1408 5136 928
WIRE 5344 1408 5136 1408
WIRE 5536 1408 5536 1216
WIRE 5584 1408 5584 1360
WIRE 5584 1408 5536 1408
WIRE 5632 1408 5632 1392
WIRE 80 1424 80 1392
WIRE 5584 1488 5584 1408
WIRE 400 1520 400 1392
WIRE 576 1520 576 1456
WIRE 576 1520 400 1520
WIRE 672 1520 672 1456
WIRE 752 1520 672 1520
WIRE 64 1536 64 1472
WIRE 64 1536 -112 1536
WIRE 160 1536 160 1472
WIRE 240 1536 240 1392
WIRE 240 1536 160 1536
WIRE 576 1568 576 1520
WIRE 672 1568 672 1520
WIRE 64 1584 64 1536
WIRE 160 1584 160 1536
WIRE 5296 1600 5152 1600
WIRE 6080 1600 5984 1600
WIRE 6176 1600 6128 1600
WIRE 6208 1600 6176 1600
WIRE -64 1632 -64 1152
WIRE -64 1632 -176 1632
WIRE 144 1632 -64 1632
WIRE 656 1648 656 1616
WIRE 656 1648 592 1648
WIRE 752 1648 752 1520
WIRE 784 1648 752 1648
WIRE 464 1664 416 1664
WIRE 512 1664 512 1408
WIRE 512 1664 464 1664
WIRE 592 1664 592 1648
WIRE 592 1664 528 1664
WIRE 5984 1664 5984 1600
WIRE 592 1680 592 1664
WIRE 5984 1680 5984 1664
WIRE -304 1696 -304 1680
WIRE -176 1696 -176 1632
WIRE -176 1696 -304 1696
WIRE -112 1696 -176 1696
WIRE -640 1712 -640 1376
WIRE -352 1712 -352 1696
WIRE -352 1712 -640 1712
WIRE 5280 1712 5280 1648
WIRE 5280 1712 5104 1712
WIRE 5376 1712 5376 1648
WIRE 5456 1712 5376 1712
WIRE -352 1728 -352 1712
WIRE -176 1744 -176 1696
WIRE -64 1744 -176 1744
WIRE 80 1744 -64 1744
WIRE 5280 1760 5280 1712
WIRE 5376 1760 5376 1712
WIRE 576 1792 576 1728
WIRE 576 1792 400 1792
WIRE 672 1792 672 1728
WIRE 752 1792 752 1648
WIRE 752 1792 672 1792
WIRE -304 1808 -304 1696
WIRE 5360 1824 5360 1808
WIRE 5360 1824 4576 1824
WIRE 576 1840 576 1792
WIRE 672 1840 672 1792
WIRE 5360 1840 5360 1824
WIRE 5360 1840 5296 1840
WIRE 5456 1840 5456 1712
WIRE 5616 1840 5456 1840
WIRE 64 1856 64 1792
WIRE 64 1856 -112 1856
WIRE 160 1856 160 1792
WIRE 240 1856 160 1856
WIRE 5808 1856 5728 1856
WIRE 5296 1872 5296 1840
WIRE 512 1888 512 1664
WIRE 656 1888 512 1888
WIRE 64 1904 64 1856
WIRE 160 1904 160 1856
WIRE 5616 1968 5616 1840
WIRE 5792 1968 5792 1904
WIRE 5792 1968 5616 1968
WIRE 5888 1968 5888 1904
WIRE 5968 1968 5888 1968
WIRE -640 1984 -640 1712
WIRE 80 1984 -640 1984
WIRE 144 1984 144 1952
WIRE 144 1984 80 1984
WIRE 5120 1984 5104 1984
WIRE 5280 1984 5280 1920
WIRE 5280 1984 5120 1984
WIRE 5376 1984 5376 1920
WIRE 5456 1984 5456 1840
WIRE 5456 1984 5376 1984
WIRE 240 2000 240 1856
WIRE 400 2000 400 1792
WIRE 400 2000 240 2000
WIRE 80 2016 80 1984
WIRE 5792 2016 5792 1968
WIRE 5888 2016 5888 1968
WIRE 464 2032 464 1664
WIRE 464 2032 336 2032
WIRE 5280 2032 5280 1984
WIRE 5376 2032 5376 1984
WIRE 528 2048 528 1664
WIRE 624 2048 528 2048
WIRE 5152 2080 5152 1600
WIRE 5152 2080 5040 2080
WIRE 5360 2080 5152 2080
WIRE 5872 2096 5872 2064
WIRE 5872 2096 5808 2096
WIRE 5968 2096 5968 1968
WIRE 6000 2096 5968 2096
WIRE 5680 2112 5632 2112
WIRE 5728 2112 5728 1856
WIRE 5728 2112 5680 2112
WIRE 5808 2112 5808 2096
WIRE 5808 2112 5744 2112
WIRE 64 2128 64 2064
WIRE 64 2128 -112 2128
WIRE 160 2128 160 2064
WIRE 240 2128 240 2000
WIRE 240 2128 160 2128
WIRE 5808 2128 5808 2112
WIRE 4912 2144 4912 2128
WIRE 5040 2144 5040 2080
WIRE 5040 2144 4912 2144
WIRE 5104 2144 5040 2144
WIRE 4576 2160 4576 1824
WIRE 4864 2160 4864 2144
WIRE 4864 2160 4576 2160
WIRE 64 2176 64 2128
WIRE 160 2176 160 2128
WIRE 4864 2176 4864 2160
WIRE 5040 2192 5040 2144
WIRE 5152 2192 5040 2192
WIRE 5296 2192 5152 2192
WIRE 432 2208 432 2192
WIRE 624 2208 624 2048
WIRE 624 2208 432 2208
WIRE -64 2224 -64 1744
WIRE 144 2224 -64 2224
WIRE 336 2224 336 2032
WIRE 384 2224 384 2176
WIRE 384 2224 336 2224
WIRE 432 2224 432 2208
WIRE 5792 2240 5792 2176
WIRE 5792 2240 5616 2240
WIRE 5888 2240 5888 2176
WIRE 5968 2240 5968 2096
WIRE 5968 2240 5888 2240
WIRE 4912 2256 4912 2144
WIRE 5792 2288 5792 2240
WIRE 5888 2288 5888 2240
WIRE 384 2304 384 2224
WIRE 5280 2304 5280 2240
WIRE 5280 2304 5104 2304
WIRE 5376 2304 5376 2240
WIRE 5456 2304 5376 2304
WIRE 5728 2336 5728 2112
WIRE 5872 2336 5728 2336
WIRE 5280 2352 5280 2304
WIRE 5376 2352 5376 2304
WIRE 4576 2432 4576 2160
WIRE 5296 2432 4576 2432
WIRE 5360 2432 5360 2400
WIRE 5360 2432 5296 2432
WIRE 5456 2448 5456 2304
WIRE 5616 2448 5616 2240
WIRE 5616 2448 5456 2448
WIRE 5296 2464 5296 2432
WIRE 5680 2480 5680 2112
WIRE 5680 2480 5552 2480
WIRE 5744 2496 5744 2112
WIRE 5840 2496 5744 2496
WIRE 5280 2576 5280 2512
WIRE 5280 2576 5104 2576
WIRE 5376 2576 5376 2512
WIRE 5456 2576 5456 2448
WIRE 5456 2576 5376 2576
WIRE 5280 2624 5280 2576
WIRE 5376 2624 5376 2576
WIRE 5648 2656 5648 2640
WIRE 5840 2656 5840 2496
WIRE 5840 2656 5648 2656
WIRE 5152 2672 5152 2192
WIRE 5360 2672 5152 2672
WIRE 5552 2672 5552 2480
WIRE 5600 2672 5600 2624
WIRE 5600 2672 5552 2672
WIRE 5648 2672 5648 2656
WIRE 5600 2752 5600 2672
FLAG 6496 1712 0
FLAG 5984 1760 0
FLAG 6208 1408 0
FLAG 7344 736 0
FLAG 6240 1744 0
FLAG 6496 1632 0V
FLAG -176 288 Bbar
FLAG -176 608 Bbar
FLAG -176 880 B
FLAG -176 448 Cin
FLAG 7344 656 Cin
FLAG 352 416 A
FLAG 6208 1328 A
FLAG 5984 1664 B
FLAG 5904 1456 0
FLAG 6240 1664 vee
FLAG 560 320 vee
FLAG 560 592 vee
FLAG 48 928 vee
FLAG 48 656 vee
FLAG 48 336 vee
FLAG 48 64 vee
FLAG 5904 1376 vdd
FLAG 48 -48 vdd
FLAG 48 224 vdd
FLAG 48 544 vdd
FLAG 48 816 vdd
FLAG 560 208 vdd
FLAG 560 480 vdd
FLAG -176 16 B
FLAG 6176 1600 Bbar
FLAG 5984 1232 0
FLAG 5984 1152 1V
FLAG -416 400 vdd
FLAG -416 528 vee
FLAG 6128 1232 0
FLAG 6272 1248 0
FLAG 6128 1152 vcc
FLAG 6272 1168 vss
FLAG -416 352 vcc
FLAG -416 576 vss
FLAG 368 896 vdd
FLAG 368 1024 vee
FLAG 368 848 vcc
FLAG 368 1072 vss
FLAG -112 1696 Cin
FLAG 416 1664 A
FLAG 624 1568 vee
FLAG 624 1840 vee
FLAG 112 2176 vee
FLAG 112 1904 vee
FLAG 112 1584 vee
FLAG 112 1312 vee
FLAG 112 1200 vdd
FLAG 112 1472 vdd
FLAG 112 1792 vdd
FLAG 112 2064 vdd
FLAG 624 1456 vdd
FLAG 624 1728 vdd
FLAG -352 1648 vdd
FLAG -352 1776 vee
FLAG -352 1600 vcc
FLAG -352 1824 vss
FLAG 432 2144 vdd
FLAG 432 2272 vee
FLAG 432 2096 vcc
FLAG 432 2320 vss
FLAG -112 1536 B
FLAG -112 1856 B
FLAG -112 1264 0V
FLAG -112 2128 1V
FLAG 5632 2112 A
FLAG 5840 2016 vee
FLAG 5840 2288 vee
FLAG 5328 2624 vee
FLAG 5328 2352 vee
FLAG 5328 2032 vee
FLAG 5328 1760 vee
FLAG 5328 1648 vdd
FLAG 5328 1920 vdd
FLAG 5328 2240 vdd
FLAG 5328 2512 vdd
FLAG 5840 1904 vdd
FLAG 5840 2176 vdd
FLAG 4864 2096 vdd
FLAG 4864 2224 vee
FLAG 4864 2048 vcc
FLAG 4864 2272 vss
FLAG 5648 2592 vdd
FLAG 5648 2720 vee
FLAG 5648 2544 vcc
FLAG 5648 2768 vss
FLAG 5088 720 Bbar
FLAG 5088 1040 Bbar
FLAG 5088 1312 B
FLAG 5616 848 A
FLAG 5824 752 vee
FLAG 5824 1024 vee
FLAG 5312 1360 vee
FLAG 5312 1088 vee
FLAG 5312 768 vee
FLAG 5312 496 vee
FLAG 5312 384 vdd
FLAG 5312 656 vdd
FLAG 5312 976 vdd
FLAG 5312 1248 vdd
FLAG 5824 640 vdd
FLAG 5824 912 vdd
FLAG 5088 448 B
FLAG 4848 832 vdd
FLAG 4848 960 vee
FLAG 4848 784 vcc
FLAG 4848 1008 vss
FLAG 5632 1328 vdd
FLAG 5632 1456 vee
FLAG 5632 1280 vcc
FLAG 5632 1504 vss
FLAG 5088 880 Bin
FLAG 6080 1456 0
FLAG 6080 1376 Bin
FLAG 5104 2144 Bin
FLAG 5104 1712 B
FLAG 5120 1984 1V
FLAG 5104 2576 B
FLAG 5104 2304 0V
FLAG 720 400 sum
FLAG 784 1648 carry_out
FLAG 5984 832 diff
FLAG 6000 2096 borrow
SYMBOL voltage 6496 1616 R0
WINDOW 123 0 0 Left 0
WINDOW 39 0 0 Left 0
SYMATTR InstName V1
SYMATTR Value -.5
SYMBOL voltage 5984 1664 R0
WINDOW 3 -47 135 Left 2
WINDOW 123 0 0 Left 0
WINDOW 39 0 0 Left 0
SYMATTR Value PULSE(.5 -.5 0.00000001n 0.00000001n 0.00000001n 10u 20u)
SYMATTR InstName V3
SYMBOL voltage 7344 640 R0
WINDOW 3 -53 138 Left 2
WINDOW 123 0 0 Left 0
WINDOW 39 0 0 Left 0
SYMATTR Value PULSE(.5 -.5 0.00000001n 0.00000001n 0.00000001n 5u 10u)
SYMATTR InstName V4
SYMBOL voltage 6208 1312 R0
WINDOW 123 0 0 Left 0
WINDOW 39 0 0 Left 0
WINDOW 3 -67 143 Left 2
SYMATTR InstName V5
SYMATTR Value PULSE(.5 -.5 0.00000001n 0.00000001n 0.00000001n 20u 40u)
SYMBOL voltage 6240 1648 R0
WINDOW 123 0 0 Left 0
WINDOW 39 0 0 Left 0
SYMATTR InstName V6
SYMATTR Value -1.6
SYMBOL voltage 5904 1360 R0
WINDOW 123 0 0 Left 0
WINDOW 39 0 0 Left 0
SYMATTR InstName V2
SYMATTR Value 1.6
SYMBOL ZZZ\\Sig&SysProc\\invertor 6128 1600 R0
SYMATTR InstName U4
SYMBOL voltage 5984 1136 R0
WINDOW 123 0 0 Left 0
WINDOW 39 0 0 Left 0
SYMATTR InstName V7
SYMATTR Value 0.5
SYMBOL pmos4 96 -96 R90
WINDOW 3 -62 114 Left 2
SYMATTR InstName M3
SYMATTR Value TSMC180nmP
SYMATTR Value2 l=0.18u w=0.9u
SYMBOL pmos4 96 176 R90
WINDOW 3 -60 112 Left 2
SYMATTR InstName M4
SYMATTR Value TSMC180nmP
SYMATTR Value2 l=0.18u w=0.9u
SYMBOL pmos4 96 496 R90
WINDOW 3 -59 111 Left 2
SYMATTR InstName M7
SYMATTR Value TSMC180nmP
SYMATTR Value2 l=0.18u w=0.9u
SYMBOL pmos4 96 768 R90
WINDOW 3 -63 115 Left 2
SYMATTR InstName M8
SYMATTR Value TSMC180nmP
SYMATTR Value2 l=0.18u w=0.9u
SYMBOL pmos4 608 160 R90
WINDOW 3 -52 115 Left 2
SYMATTR InstName M11
SYMATTR Value TSMC180nmP
SYMATTR Value2 l=0.18u w=0.9u
SYMBOL pmos4 608 432 R90
WINDOW 3 -63 109 Left 2
SYMATTR InstName M12
SYMATTR Value TSMC180nmP
SYMATTR Value2 l=0.18u w=0.9u
SYMBOL nmos4 0 112 R270
WINDOW 3 -68 111 Left 2
SYMATTR InstName M1
SYMATTR Value TSMC180nmN
SYMATTR Value2 l=0.18u w=0.36u
SYMBOL nmos4 0 384 R270
WINDOW 3 -77 110 Left 2
SYMATTR InstName M2
SYMATTR Value TSMC180nmN
SYMATTR Value2 l=0.18u w=0.36u
SYMBOL nmos4 0 704 R270
WINDOW 3 -77 113 Left 2
SYMATTR InstName M5
SYMATTR Value TSMC180nmN
SYMATTR Value2 l=0.18u w=0.36u
SYMBOL nmos4 0 976 R270
WINDOW 3 -86 114 Left 2
SYMATTR InstName M6
SYMATTR Value TSMC180nmN
SYMATTR Value2 l=0.18u w=0.36u
SYMBOL nmos4 512 368 R270
WINDOW 3 -82 118 Left 2
SYMATTR InstName M9
SYMATTR Value TSMC180nmN
SYMATTR Value2 l=0.18u w=0.36u
SYMBOL nmos4 512 640 R270
WINDOW 3 -75 110 Left 2
SYMATTR InstName M10
SYMATTR Value TSMC180nmN
SYMATTR Value2 l=0.18u w=0.36u
SYMBOL nmos4 -368 480 M0
SYMATTR InstName M25
SYMATTR Value TSMC180nmN
SYMATTR Value2 l=0.18u w=0.9u
SYMBOL pmos4 -368 352 M0
SYMATTR InstName M26
SYMATTR Value TSMC180nmP
SYMATTR Value2 l=0.18u w=0.9u
SYMBOL voltage 6128 1136 R0
WINDOW 123 0 0 Left 0
WINDOW 39 0 0 Left 0
SYMATTR InstName V8
SYMATTR Value .5
SYMBOL voltage 6272 1152 R0
WINDOW 123 0 0 Left 0
WINDOW 39 0 0 Left 0
SYMATTR InstName V9
SYMATTR Value -.5
SYMBOL nmos4 320 976 R0
SYMATTR InstName M27
SYMATTR Value TSMC180nmN
SYMATTR Value2 l=0.18u w=0.9u
SYMBOL pmos4 320 848 R0
SYMATTR InstName M28
SYMATTR Value TSMC180nmP
SYMATTR Value2 l=0.18u w=0.9u
SYMBOL pmos4 160 1152 R90
WINDOW 3 -59 119 Left 2
SYMATTR InstName M29
SYMATTR Value TSMC180nmP
SYMATTR Value2 l=0.18u w=0.9u
SYMBOL pmos4 160 1424 R90
WINDOW 3 -65 115 Left 2
SYMATTR InstName M30
SYMATTR Value TSMC180nmP
SYMATTR Value2 l=0.18u w=0.9u
SYMBOL pmos4 160 1744 R90
WINDOW 3 -63 117 Left 2
SYMATTR InstName M31
SYMATTR Value TSMC180nmP
SYMATTR Value2 l=0.18u w=0.9u
SYMBOL pmos4 160 2016 R90
WINDOW 3 -64 114 Left 2
SYMATTR InstName M32
SYMATTR Value TSMC180nmP
SYMATTR Value2 l=0.18u w=0.9u
SYMBOL pmos4 672 1408 R90
WINDOW 3 -60 115 Left 2
SYMATTR InstName M33
SYMATTR Value TSMC180nmP
SYMATTR Value2 l=0.18u w=0.9u
SYMBOL pmos4 672 1680 R90
WINDOW 3 -50 111 Left 2
SYMATTR InstName M34
SYMATTR Value TSMC180nmP
SYMATTR Value2 l=0.18u w=0.9u
SYMBOL nmos4 64 1360 R270
WINDOW 3 -76 110 Left 2
SYMATTR InstName M35
SYMATTR Value TSMC180nmN
SYMATTR Value2 l=0.18u w=0.36u
SYMBOL nmos4 64 1632 R270
WINDOW 3 -79 111 Left 2
SYMATTR InstName M36
SYMATTR Value TSMC180nmN
SYMATTR Value2 l=0.18u w=0.36u
SYMBOL nmos4 64 1952 R270
WINDOW 3 -83 114 Left 2
SYMATTR InstName M37
SYMATTR Value TSMC180nmN
SYMATTR Value2 l=0.18u w=0.36u
SYMBOL nmos4 64 2224 R270
WINDOW 3 -81 111 Left 2
SYMATTR InstName M38
SYMATTR Value TSMC180nmN
SYMATTR Value2 l=0.18u w=0.36u
SYMBOL nmos4 576 1616 R270
WINDOW 3 -85 114 Left 2
SYMATTR InstName M39
SYMATTR Value TSMC180nmN
SYMATTR Value2 l=0.18u w=0.36u
SYMBOL nmos4 576 1888 R270
WINDOW 3 -74 113 Left 2
SYMATTR InstName M40
SYMATTR Value TSMC180nmN
SYMATTR Value2 l=0.18u w=0.36u
SYMBOL nmos4 -304 1728 M0
SYMATTR InstName M41
SYMATTR Value TSMC180nmN
SYMATTR Value2 l=0.18u w=0.9u
SYMBOL pmos4 -304 1600 M0
SYMATTR InstName M42
SYMATTR Value TSMC180nmP
SYMATTR Value2 l=0.18u w=0.9u
SYMBOL nmos4 384 2224 R0
SYMATTR InstName M43
SYMATTR Value TSMC180nmN
SYMATTR Value2 l=0.18u w=0.9u
SYMBOL pmos4 384 2096 R0
SYMATTR InstName M44
SYMATTR Value TSMC180nmP
SYMATTR Value2 l=0.18u w=0.9u
SYMBOL pmos4 5376 1600 R90
WINDOW 3 -60 112 Left 2
SYMATTR InstName M13
SYMATTR Value TSMC180nmP
SYMATTR Value2 l=0.18u w=0.9u
SYMBOL pmos4 5376 1872 R90
WINDOW 3 -58 110 Left 2
SYMATTR InstName M14
SYMATTR Value TSMC180nmP
SYMATTR Value2 l=0.18u w=0.9u
SYMBOL pmos4 5376 2192 R90
WINDOW 3 -42 109 Left 2
SYMATTR InstName M15
SYMATTR Value TSMC180nmP
SYMATTR Value2 l=0.18u w=0.9u
SYMBOL pmos4 5376 2464 R90
WINDOW 3 -51 114 Left 2
SYMATTR InstName M16
SYMATTR Value TSMC180nmP
SYMATTR Value2 l=0.18u w=0.9u
SYMBOL pmos4 5888 1856 R90
WINDOW 3 -68 109 Left 2
SYMATTR InstName M17
SYMATTR Value TSMC180nmP
SYMATTR Value2 l=0.18u w=0.9u
SYMBOL pmos4 5888 2128 R90
WINDOW 3 -54 108 Left 2
SYMATTR InstName M18
SYMATTR Value TSMC180nmP
SYMATTR Value2 l=0.18u w=0.9u
SYMBOL nmos4 5280 1808 R270
WINDOW 3 -78 110 Left 2
SYMATTR InstName M19
SYMATTR Value TSMC180nmN
SYMATTR Value2 l=0.18u w=0.36u
SYMBOL nmos4 5280 2080 R270
WINDOW 3 -77 109 Left 2
SYMATTR InstName M20
SYMATTR Value TSMC180nmN
SYMATTR Value2 l=0.18u w=0.36u
SYMBOL nmos4 5280 2400 R270
WINDOW 3 -73 110 Left 2
SYMATTR InstName M21
SYMATTR Value TSMC180nmN
SYMATTR Value2 l=0.18u w=0.36u
SYMBOL nmos4 5280 2672 R270
WINDOW 3 -67 112 Left 2
SYMATTR InstName M22
SYMATTR Value TSMC180nmN
SYMATTR Value2 l=0.18u w=0.36u
SYMBOL nmos4 5792 2064 R270
WINDOW 3 -70 112 Left 2
SYMATTR InstName M23
SYMATTR Value TSMC180nmN
SYMATTR Value2 l=0.18u w=0.36u
SYMBOL nmos4 5792 2336 R270
WINDOW 3 -73 108 Left 2
SYMATTR InstName M24
SYMATTR Value TSMC180nmN
SYMATTR Value2 l=0.18u w=0.36u
SYMBOL nmos4 4912 2176 M0
SYMATTR InstName M45
SYMATTR Value TSMC180nmN
SYMATTR Value2 l=0.18u w=0.9u
SYMBOL pmos4 4912 2048 M0
SYMATTR InstName M46
SYMATTR Value TSMC180nmP
SYMATTR Value2 l=0.18u w=0.9u
SYMBOL nmos4 5600 2672 R0
SYMATTR InstName M47
SYMATTR Value TSMC180nmN
SYMATTR Value2 l=0.18u w=0.9u
SYMBOL pmos4 5600 2544 R0
SYMATTR InstName M48
SYMATTR Value TSMC180nmP
SYMATTR Value2 l=0.18u w=0.9u
SYMBOL pmos4 5360 336 R90
WINDOW 3 -54 110 Left 2
SYMATTR InstName M65
SYMATTR Value TSMC180nmP
SYMATTR Value2 l=0.18u w=0.9u
SYMBOL pmos4 5360 608 R90
WINDOW 3 -57 104 Left 2
SYMATTR InstName M66
SYMATTR Value TSMC180nmP
SYMATTR Value2 l=0.18u w=0.9u
SYMBOL pmos4 5360 928 R90
WINDOW 3 -57 114 Left 2
SYMATTR InstName M67
SYMATTR Value TSMC180nmP
SYMATTR Value2 l=0.18u w=0.9u
SYMBOL pmos4 5360 1200 R90
WINDOW 3 -60 112 Left 2
SYMATTR InstName M68
SYMATTR Value TSMC180nmP
SYMATTR Value2 l=0.18u w=0.9u
SYMBOL pmos4 5872 592 R90
WINDOW 3 -59 109 Left 2
SYMATTR InstName M69
SYMATTR Value TSMC180nmP
SYMATTR Value2 l=0.18u w=0.9u
SYMBOL pmos4 5872 864 R90
WINDOW 3 -65 110 Left 2
SYMATTR InstName M70
SYMATTR Value TSMC180nmP
SYMATTR Value2 l=0.18u w=0.9u
SYMBOL nmos4 5264 544 R270
WINDOW 3 -74 116 Left 2
SYMATTR InstName M71
SYMATTR Value TSMC180nmN
SYMATTR Value2 l=0.18u w=0.36u
SYMBOL nmos4 5264 816 R270
WINDOW 3 -85 111 Left 2
SYMATTR InstName M72
SYMATTR Value TSMC180nmN
SYMATTR Value2 l=0.18u w=0.36u
SYMBOL nmos4 5264 1136 R270
WINDOW 3 -79 113 Left 2
SYMATTR InstName M73
SYMATTR Value TSMC180nmN
SYMATTR Value2 l=0.18u w=0.36u
SYMBOL nmos4 5264 1408 R270
WINDOW 3 -76 112 Left 2
SYMATTR InstName M74
SYMATTR Value TSMC180nmN
SYMATTR Value2 l=0.18u w=0.36u
SYMBOL nmos4 5776 800 R270
WINDOW 3 -80 115 Left 2
SYMATTR InstName M75
SYMATTR Value TSMC180nmN
SYMATTR Value2 l=0.18u w=0.36u
SYMBOL nmos4 5776 1072 R270
WINDOW 3 -81 109 Left 2
SYMATTR InstName M76
SYMATTR Value TSMC180nmN
SYMATTR Value2 l=0.18u w=0.36u
SYMBOL nmos4 4896 912 M0
SYMATTR InstName M77
SYMATTR Value TSMC180nmN
SYMATTR Value2 l=0.18u w=0.9u
SYMBOL pmos4 4896 784 M0
SYMATTR InstName M78
SYMATTR Value TSMC180nmP
SYMATTR Value2 l=0.18u w=0.9u
SYMBOL nmos4 5584 1408 R0
SYMATTR InstName M79
SYMATTR Value TSMC180nmN
SYMATTR Value2 l=0.18u w=0.9u
SYMBOL pmos4 5584 1280 R0
SYMATTR InstName M80
SYMATTR Value TSMC180nmP
SYMATTR Value2 l=0.18u w=0.9u
SYMBOL voltage 6080 1360 R0
WINDOW 3 -53 138 Left 2
WINDOW 123 0 0 Left 0
WINDOW 39 0 0 Left 0
SYMATTR Value PULSE(.5 -.5 0.00000001n 0.00000001n 0.00000001n 5u 10u)
SYMATTR InstName V10
TEXT -264 984 Left 2 !.tran 50u
TEXT -968 -1456 Left 2 !.MODEL TSMC180nmN NMOS (                                LEVEL   = 7\n+VERSION = 3.1            TNOM    = 27             TOX     = 4.1E-9\n+XJ      = 1E-7           NCH     = 2.3549E17      VTH0    = 0.354505\n+K1      = 0.5733393      K2      = 3.177172E-3    K3      = 27.3563303\n+K3B     = -10            W0      = 2.341477E-5    NLX     = 1.906617E-7\n+DVT0W   = 0              DVT1W   = 0              DVT2W   = 0\n+DVT0    = 1.6751718      DVT1    = 0.4282625      DVT2    = 0.036004\n+U0      = 327.3736992    UA      = -4.52726E-11   UB      = 4.46532E-19\n+UC      = -4.74051E-11   VSAT    = 8.785346E4     A0      = 1.6897405\n+AGS     = 0.2908676      B0      = -8.224961E-9   B1      = -1E-7\n+KETA    = 0.021238       A1      = 8.00349E-4     A2      = 1\n+RDSW    = 105            PRWG    = 0.5            PRWB    = -0.2\n+WR      = 1              WINT    = 0              LINT    = 1.351737E-8\n*+XL      = -2E-8          XW      = -1E-8         \n+ DWG     = 1.610448E-9\n+DWB     = -5.108595E-9   VOFF    = -0.0652968     NFACTOR = 2.4901845\n+CIT     = 0              CDSC    = 2.4E-4         CDSCD   = 0\n+CDSCB   = 0              ETA0    = 0.0231564      ETAB    = -0.058499\n+DSUB    = 0.9467118      PCLM    = 0.8512348      PDIBLC1 = 0.0929526\n+PDIBLC2 = 0.01           PDIBLCB = -0.1           DROUT   = 0.5224026\n+PSCBE1  = 7.979323E10    PSCBE2  = 1.522921E-9    PVAG    = 0.01\n+DELTA   = 0.01           RSH     = 6.8            MOBMOD  = 1\n+PRT     = 0              UTE     = -1.5           KT1     = -0.11\n+KT1L    = 0              KT2     = 0.022          UA1     = 4.31E-9\n+UB1     = -7.61E-18      UC1     = -5.6E-11       AT      = 3.3E4\n+WL      = 0              WLN     = 1              WW      = 0\n+WWN     = 1              WWL     = 0              LL      = 0\n+LLN     = 1              LW      = 0              LWN     = 1\n+LWL     = 0              CAPMOD  = 2              XPART   = 0.5\n+CGDO    = 7.7E-10        CGSO    = 7.7E-10        CGBO    = 1E-12\n+CJ      = 1.010083E-3    PB      = 0.7344298      MJ      = 0.3565066\n+CJSW    = 2.441707E-10   PBSW    = 0.8005503      MJSW    = 0.1327842\n+CJSWG   = 3.3E-10        PBSWG   = 0.8005503      MJSWG   = 0.1327842\n+CF      = 0              PVTH0   = 1.307195E-3    PRDSW   = -5\n+PK2     = -1.022757E-3   WKETA   = -4.466285E-4   LKETA   = -9.715157E-3\n+PU0     = 12.2704847     PUA     = 4.421816E-11   PUB     = 0\n+PVSAT   = 1.707461E3     PETA0   = 1E-4           PKETA   = 2.348777E-3     )
TEXT 1800 -1352 Left 2 !.MODEL TSMC180nmP PMOS (                                LEVEL   = 7\n+VERSION = 3.1            TNOM    = 27             TOX     = 4.1E-9\n+XJ      = 1E-7           NCH     = 4.1589E17      VTH0    = -0.4120614\n+K1      = 0.5590154      K2      = 0.0353896      K3      = 0\n+K3B     = 7.3774572      W0      = 1E-6           NLX     = 1.103367E-7\n+DVT0W   = 0              DVT1W   = 0              DVT2W   = 0\n+DVT0    = 0.4301522      DVT1    = 0.2156888      DVT2    = 0.1\n+U0      = 128.7704538    UA      = 1.908676E-9    UB      = 1.686179E-21\n+UC      = -9.31329E-11   VSAT    = 1.658944E5     A0      = 1.6076505\n+AGS     = 0.3740519      B0      = 1.711294E-6    B1      = 4.946873E-6\n+KETA    = 0.0210951      A1      = 0.0244939      A2      = 1\n+RDSW    = 127.0442882    PRWG    = 0.5            PRWB    = -0.5\n+WR      = 1              WINT    = 5.428484E-10   LINT    = 2.468805E-8\n*+XL      = -2E-8          XW      = -1E-8          \n+DWG     = -2.453074E-8\n+DWB     = 6.408778E-9    VOFF    = -0.0974174     NFACTOR = 1.9740447\n+CIT     = 0              CDSC    = 2.4E-4         CDSCD   = 0\n+CDSCB   = 0              ETA0    = 0.1847491      ETAB    = -0.2531172\n+DSUB    = 1.5            PCLM    = 4.8842961      PDIBLC1 = 0.0156227\n+PDIBLC2 = 0.1            PDIBLCB = -1E-3          DROUT   = 0\n+PSCBE1  = 1.733878E9     PSCBE2  = 5.002842E-10   PVAG    = 15\n+DELTA   = 0.01           RSH     = 7.7            MOBMOD  = 1\n+PRT     = 0              UTE     = -1.5           KT1     = -0.11\n+KT1L    = 0              KT2     = 0.022          UA1     = 4.31E-9\n+UB1     = -7.61E-18      UC1     = -5.6E-11       AT      = 3.3E4\n+WL      = 0              WLN     = 1              WW      = 0\n+WWN     = 1              WWL     = 0              LL      = 0\n+LLN     = 1              LW      = 0              LWN     = 1\n+LWL     = 0              CAPMOD  = 2              XPART   = 0.5\n+CGDO    = 7.11E-10       CGSO    = 7.11E-10       CGBO    = 1E-12\n+CJ      = 1.179334E-3    PB      = 0.8545261      MJ      = 0.4117753\n+CJSW    = 2.215877E-10   PBSW    = 0.6162997      MJSW    = 0.2678074\n+CJSWG   = 4.22E-10       PBSWG   = 0.6162997      MJSWG   = 0.2678074\n+CF      = 0              PVTH0   = 2.283319E-3    PRDSW   = 5.6431992\n+PK2     = 2.813503E-3    WKETA   = 2.438158E-3    LKETA   = -0.0116078\n+PU0     = -2.2514581     PUA     = -7.62392E-11   PUB     = 4.502298E-24\n+PVSAT   = -50            PETA0   = 1E-4           PKETA   = -1.047892E-4    )
TEXT -200 2232 Left 2 !;tran 50u
TEXT 5016 2680 Left 2 !;tran 50u
TEXT 5000 1416 Left 2 !;tran 50u
