Version 4
SHEET 1 3896 1188
WIRE 192 -96 -288 -96
WIRE 384 -32 288 -32
WIRE 480 -16 448 -16
WIRE 496 -16 480 -16
WIRE -256 0 -352 0
WIRE 384 0 352 0
WIRE 896 0 816 0
WIRE -160 16 -192 16
WIRE -144 16 -160 16
WIRE 1040 16 960 16
WIRE 1056 16 1040 16
WIRE -288 32 -288 -96
WIRE -288 32 -352 32
WIRE -256 32 -288 32
WIRE 896 32 880 32
WIRE 352 48 352 0
WIRE 768 48 352 48
WIRE 0 96 -32 96
WIRE 592 96 528 96
WIRE -144 144 -144 16
WIRE -32 144 -32 96
WIRE -32 144 -144 144
WIRE 496 144 496 -16
WIRE 528 144 528 96
WIRE 528 144 496 144
WIRE -144 208 -144 144
WIRE -144 208 -512 208
WIRE 80 224 80 144
WIRE 128 224 80 224
WIRE 496 224 496 144
WIRE 496 224 400 224
WIRE 672 224 672 144
WIRE 720 224 672 224
WIRE -16 240 -16 144
WIRE -16 240 -224 240
WIRE 576 240 576 144
WIRE 576 240 368 240
WIRE 192 304 192 -96
WIRE 256 304 192 304
WIRE 352 304 352 48
WIRE 352 304 288 304
WIRE -16 320 -16 240
WIRE 80 320 80 224
WIRE 576 320 576 240
WIRE 672 320 672 224
WIRE 768 320 768 48
WIRE 816 320 768 320
WIRE 880 320 880 32
WIRE 880 320 848 320
WIRE 368 368 368 240
WIRE 368 368 320 368
WIRE -464 384 -496 384
WIRE 64 400 64 368
WIRE 64 400 -64 400
WIRE 656 400 656 368
WIRE 656 400 512 400
WIRE -416 416 -416 400
WIRE -256 416 -416 416
WIRE 64 416 64 400
WIRE 64 416 0 416
WIRE 128 416 128 224
WIRE 272 416 272 320
WIRE 272 416 128 416
WIRE 720 416 720 224
WIRE 832 416 832 336
WIRE 832 416 720 416
WIRE -512 448 -512 208
WIRE -496 448 -496 384
WIRE -496 448 -512 448
WIRE -416 448 -416 416
WIRE 0 448 0 416
WIRE 656 448 656 400
WIRE 656 448 608 448
WIRE 512 464 512 400
WIRE 512 464 464 464
WIRE 400 480 400 224
WIRE 400 480 208 480
WIRE -256 512 -256 416
WIRE -64 512 -64 400
WIRE -64 512 -256 512
WIRE -496 528 -496 448
WIRE -464 528 -496 528
WIRE 688 576 688 496
WIRE 720 576 720 416
WIRE 720 576 688 576
WIRE -16 592 -16 496
WIRE -16 592 -224 592
WIRE 80 592 80 496
WIRE 128 592 128 416
WIRE 128 592 80 592
WIRE 592 592 592 496
WIRE 592 592 320 592
WIRE -16 672 -16 592
WIRE 80 672 80 592
WIRE 592 672 592 592
WIRE 688 672 688 576
WIRE -32 720 -32 144
WIRE 64 720 -32 720
WIRE 528 720 528 144
WIRE 672 720 528 720
WIRE 464 736 464 464
WIRE 592 736 464 736
WIRE 320 784 288 784
WIRE 368 832 368 800
WIRE 592 832 592 736
WIRE 592 832 368 832
WIRE 368 848 368 832
WIRE 208 864 208 480
WIRE 288 864 288 784
WIRE 288 864 208 864
WIRE 288 928 288 864
WIRE 320 928 288 928
FLAG 960 144 vdd
FLAG 624 144 vdd
FLAG 640 496 vdd
FLAG 32 144 vdd
FLAG 32 496 vdd
FLAG 1104 144 vee
FLAG 624 320 vee
FLAG 640 672 vee
FLAG 32 672 vee
FLAG 32 320 vee
FLAG 960 224 0
FLAG 1104 224 0
FLAG 960 400 vrby2
FLAG -352 0 vrby2
FLAG -224 592 vrby2
FLAG 1136 400 vrby4
FLAG 288 -32 vrby4
FLAG 320 592 vrby4
FLAG 1296 400 vrby8
FLAG 816 0 vrby8
FLAG 832 624 0V
FLAG -224 240 0V
FLAG 320 368 0V
FLAG 960 480 0
FLAG 1136 480 0
FLAG 1296 480 0
FLAG 832 704 0
FLAG 1008 704 0
FLAG -352 32 Vi
FLAG 1008 624 Vi
FLAG 1184 688 0
FLAG -224 -16 vcc
FLAG 416 -48 vcc
FLAG 928 -16 vcc
FLAG 1184 608 vcc-
FLAG -224 48 vcc-
FLAG 416 16 vcc-
FLAG 928 48 vcc-
FLAG 896 928 0
FLAG 1072 928 0
FLAG 896 848 vcc
FLAG 368 704 vcc
FLAG 1072 848 vss
FLAG 368 944 vss
FLAG 368 752 vdd
FLAG 368 896 vee
FLAG -416 304 vcc
FLAG -416 544 vss
FLAG -416 352 vdd
FLAG -416 496 vee
FLAG -160 16 A2
FLAG 480 -16 A1
FLAG 1040 16 A0
SYMBOL nmos4 -16 368 R270
WINDOW 3 -39 112 Left 2
SYMATTR Value n_mos
SYMATTR InstName M1
SYMATTR Value2 l=0.18u w=0.36u
SYMBOL nmos4 576 368 R270
WINDOW 3 -37 123 Left 2
SYMATTR Value n_mos
SYMATTR InstName M2
SYMATTR Value2 l=0.18u w=0.36u
SYMBOL pmos4 80 96 R90
WINDOW 3 -44 134 Left 2
SYMATTR Value p_mos
SYMATTR InstName M3
SYMATTR Value2 l=0.18u w=0.9u
SYMBOL pmos4 672 96 R90
WINDOW 3 -25 117 Left 2
SYMATTR Value p_mos
SYMATTR InstName M4
SYMATTR Value2 l=0.18u w=0.9u
SYMBOL nmos4 -16 720 R270
WINDOW 3 -60 119 Left 2
SYMATTR Value n_mos
SYMATTR InstName M5
SYMATTR Value2 l=0.18u w=0.36u
SYMBOL pmos4 80 448 R90
WINDOW 3 -32 122 Left 2
SYMATTR Value p_mos
SYMATTR InstName M6
SYMATTR Value2 l=0.18u w=0.9u
SYMBOL nmos4 592 720 R270
WINDOW 3 -49 114 Left 2
SYMATTR Value n_mos
SYMATTR InstName M7
SYMATTR Value2 l=0.18u w=0.36u
SYMBOL pmos4 688 448 R90
WINDOW 3 -23 112 Left 2
SYMATTR Value p_mos
SYMATTR InstName M8
SYMATTR Value2 l=0.18u w=0.9u
SYMBOL voltage 960 128 R0
WINDOW 123 0 0 Left 0
WINDOW 39 0 0 Left 0
SYMATTR InstName V1
SYMATTR Value 1.6
SYMBOL voltage 1104 128 R0
WINDOW 123 0 0 Left 0
WINDOW 39 0 0 Left 0
SYMATTR InstName V2
SYMATTR Value -1.6
SYMBOL ZZZ\\Comparator\\lmv7271 -224 16 R0
SYMATTR InstName U3
SYMBOL ZZZ\\Comparator\\lmv7271 416 -16 R0
SYMATTR InstName U4
SYMBOL ZZZ\\Comparator\\lmv7271 928 16 R0
SYMATTR InstName U5
SYMBOL ZZZ\\Sig&SysProc\\subtr 304 304 R0
SYMATTR InstName U6
SYMBOL ZZZ\\Sig&SysProc\\subtr 864 320 R0
SYMATTR InstName U7
SYMBOL voltage 960 384 R0
WINDOW 123 0 0 Left 0
WINDOW 39 0 0 Left 0
SYMATTR InstName V4
SYMATTR Value .5
SYMBOL voltage 1136 384 R0
WINDOW 123 0 0 Left 0
WINDOW 39 0 0 Left 0
SYMATTR InstName V5
SYMATTR Value .25
SYMBOL voltage 1296 384 R0
WINDOW 3 24 44 Left 2
WINDOW 123 0 0 Left 0
WINDOW 39 0 0 Left 0
SYMATTR Value .125
SYMATTR InstName V6
SYMBOL voltage 832 608 R0
WINDOW 123 0 0 Left 0
WINDOW 39 0 0 Left 0
SYMATTR InstName V7
SYMATTR Value 0
SYMBOL voltage 1008 608 R0
WINDOW 3 -46 140 Left 2
WINDOW 123 0 0 Left 0
WINDOW 39 0 0 Left 0
SYMATTR Value SINE(0 1 10000 10u 0 90)
SYMATTR InstName V8
SYMBOL voltage 1184 592 R0
WINDOW 123 0 0 Left 0
WINDOW 39 0 0 Left 0
SYMATTR InstName V9
SYMATTR Value -.5
SYMBOL nmos4 320 848 R0
SYMATTR InstName M9
SYMATTR Value n_mos
SYMATTR Value2 l=0.18u w=0.36u
SYMBOL pmos4 320 704 R0
SYMATTR InstName M10
SYMATTR Value p_mos
SYMATTR Value2 l=0.18u w=0.9u
SYMBOL voltage 896 832 R0
WINDOW 123 0 0 Left 0
WINDOW 39 0 0 Left 0
SYMATTR InstName V10
SYMATTR Value .5
SYMBOL voltage 1072 832 R0
WINDOW 123 0 0 Left 0
WINDOW 39 0 0 Left 0
SYMATTR InstName V11
SYMATTR Value -.5
SYMBOL nmos4 -464 448 R0
SYMATTR InstName M11
SYMATTR Value n_mos
SYMATTR Value2 l=0.18u w=0.36u
SYMBOL pmos4 -464 304 R0
SYMATTR InstName M12
SYMATTR Value p_mos
SYMATTR Value2 l=0.18u w=0.9u
TEXT -432 728 Left 2 !.tran 100u
TEXT 1904 -608 Left 2 !.model n_mos NMOS (LEVEL=8 VERSION=3.2 TNOM=27 TOX=4.1E-9 XJ=1E-7 NCH=2.3549E17 VTH0=0.3823463 K1=0.5810697 \n \n+            K2=4.774618E-3 K3=0.0431669 K3B=1.1498346 W0=1E-7 NLX=1.910552E-7 DVT0W=0 DVT1W=0 DVT2W=0 \n \n+            DVT0=1.2894824 DVT1=0.3622063 DVT2=0.0713729 U0=280.633249 UA=-1.208537E-9 UB=2.158625E-18\n \n+            UC=5.342807E-11 VSAT=9.366802E4 A0=1.7593146 AGS=0.3939741 B0=-6.413949E-9 B1=-1E-7 KETA=-5.180424E-4\n \n+            A1=0 A2=1 RDSW=105.5517558 PRWG=0.5 PRWB=-0.1998871 WR=1 WINT=7.904732E-10 LINT=1.571424E-8 XL=0\n \n+            XW=-1E-8 DWG=1.297221E-9 DWB=1.479041E-9 VOFF=-0.0955434 NFACTOR=2.4358891 CIT=0 CDSC=2.4E-4 CDSCD=0\n \n+            CDSCB=0 ETA0=3.104851E-3 ETAB=-2.512384E-5 DSUB=0.0167075 PCLM=0.8073191 PDIBLC1=0.1666161 PDIBLC2=3.112892E-3    \n \n+            PDIBLCB=-0.1 DROUT=0.7875618 PSCBE1=8E10 PSCBE2=9.213635E-10 PVAG=3.85243E-3 DELTA=0.01 RSH=6.7 MOBMOD=1\n \n+            PRT=0 UTE=-1.5 KT1=-0.11 KT1L=0 KT2=0.022 UA1=4.31E-9 UB1=-7.61E-18 UC1=-5.6E-11 AT=3.3E4 WL=0 WLN=1\n \n+            WW=0 WWN=1 WWL=0 LL=0 LLN=1 LW=0 LWN=1 LWL=0 CAPMOD=2 XPART=0.5 CGDO=7.08E-10 CGSO=7.08E-10 CGBO=1E-12\n \n+            CJ=9.68858E-4 PB=0.8 MJ=0.3864502 CJSW=2.512138E-10 PBSW=0.809286 MJSW=0.1060414 CJSWG=3.3E-10 PBSWG=0.809286 \n \n+            MJSWG=0.1060414 CF=0 PVTH0=-1.192722E-3 PRDSW=-5 PK2=6.450505E-5 WKETA=-4.27294E-4 LKETA=-0.0104078 \n \n+            PU0=6.3268729 PUA=2.226552E-11 PUB=0 PVSAT=969.1480157 PETA0=1E-4 PKETA=-1.049509E-3)
TEXT 1712 216 Left 2 !.model p_mos PMOS (LEVEL=8 VERSION=3.2 TNOM=27 TOX=4.1E-9 XJ=1E-7 NCH=4.1589E17 VTH0=-0.3938813 K1=0.5479015\n \n+            K2=0.0360586 K3=0.0993095 K3B=5.7086622 W0=1E-6 NLX=1.313191E-7 DVT0W=0 DVT1W=0 DVT2W=0 DVT0=0.4911363\n \n+            DVT1=0.2227356 DVT2=0.1 U0=115.6852975 UA=1.505832E-9 UB=1E-21 UC=-1E-10 VSAT=1.329694E5 A0=1.7590478\n \n+            AGS=0.3641621 B0=3.427126E-7 B1=1.062928E-6 KETA=0.0134667 A1=0.6859506 A2=0.3506788 RDSW=168.5705677\n \n+            PRWG=0.5 PRWB=-0.4987371 WR=1 WINT=0 LINT=3.028832E-8 XL=0 XW=-1E-8 DWG=-2.349633E-8 DWB=-7.152486E-9 \n \n+            VOFF=-0.0994037 NFACTOR=1.9424315 CIT=0 CDSC=2.4E-4 CDSCD=0 CDSCB=0 ETA0=0.0608072 ETAB=-0.0426148\n \n+            DSUB=0.7343015 PCLM=3.2579974 PDIBLC1=7.229527E-6 PDIBLC2=0.025389 PDIBLCB=-1E-3 DROUT=0 PSCBE1=1.454878E10\n \n+            PSCBE2=4.202027E-9 PVAG=15 DELTA=0.01 RSH=7.8 MOBMOD=1 PRT=0 UTE=-1.5 KT1=-0.11 KT1L=0 KT2=0.022 UA1=4.31E-9\n \n+            UB1=-7.61E-18 UC1=-5.6E-11 AT=3.3E4 WL=0 WLN=1 WW=0 WWN=1 WWL=0 LL=0 LLN=1 LW=0 LWN=1 LWL=0 CAPMOD=2 XPART=0.5\n \n+            CGDO=6.32E-10 CGSO=6.32E-10 CGBO=1E-12 CJ=1.172138E-3 PB=0.8421173 MJ=0.4109788 CJSW=2.242609E-10 PBSW=0.8            \n \n+            MJSW=0.3752089 CJSWG=4.22E-10 PBSWG=0.8 MJSWG=0.3752089 CF=0 PVTH0=1.888482E-3 PRDSW=11.5315407 PK2=1.559399E-3    \n \n+            WKETA=0.0319301 LKETA=2.955547E-3 PU0=-1.1105313 PUA=-4.62102E-11 PUB=1E-21 PVSAT=50 PETA0=1E-4 PKETA=-4.346368E-3)
